# Packages
 &PACKAGES
 useMNC = .TRUE.,
 useEXF = .FALSE.,
 useCAL = .TRUE.,
 useDiagnostics=.TRUE.,
 useRBCS=.TRUE.,
 &
